
---------- Begin Simulation Statistics ----------
# Stats desc: fft_transpose_datapath completed.
final_tick                                34941389301                       # Number of ticks from beginning of simulation (restored from checkpoints and never reset)
host_inst_rate                                 103970                       # Simulator instruction rate (inst/s)
host_mem_usage                                4573572                       # Number of bytes of host memory used
host_op_rate                                   231502                       # Simulator op (including micro ops) rate (op/s)
host_seconds                                    12.26                       # Real time elapsed on the host
host_tick_rate                             2849265670                       # Simulator tick rate (ticks/s)
sim_freq                                 1000000000000                       # Frequency of simulated ticks
sim_insts                                     1275009                       # Number of instructions simulated
sim_ops                                       2838973                       # Number of ops (including micro ops) simulated
sim_seconds                                  0.034941                       # Number of seconds simulated
sim_ticks                                 34941389301                       # Number of ticks simulated
system.cpu.branchPred.BTBCorrect                    0                       # Number of correct BTB predictions (this stat may not work properly.
system.cpu.branchPred.BTBHitPct              0.000000                       # BTB Hit Percentage
system.cpu.branchPred.BTBHits                       0                       # Number of BTB hits
system.cpu.branchPred.BTBLookups               422978                       # Number of BTB lookups
system.cpu.branchPred.RASInCorrect                  0                       # Number of incorrect RAS predictions.
system.cpu.branchPred.condIncorrect             11910                       # Number of conditional branches incorrect
system.cpu.branchPred.condPredicted            467826                       # Number of conditional branches predicted
system.cpu.branchPred.indirectHits             308772                       # Number of indirect target hits.
system.cpu.branchPred.indirectLookups          422978                       # Number of indirect predictor lookups.
system.cpu.branchPred.indirectMisses           114206                       # Number of indirect misses.
system.cpu.branchPred.lookups                  498816                       # Number of BP lookups
system.cpu.branchPred.usedRAS                   14758                       # Number of times the RAS was used to get a target.
system.cpu.branchPredindirectMispredicted         4398                       # Number of mispredicted indirect branches.
system.cpu.cc_regfile_reads                   2178788                       # number of cc regfile reads
system.cpu.cc_regfile_writes                  1000103                       # number of cc regfile writes
system.cpu.commit.amos                              0                       # Number of atomic instructions committed
system.cpu.commit.branchMispredicts             11917                       # The number of times a branch was mispredicted
system.cpu.commit.branches                     389727                       # Number of branches committed
system.cpu.commit.bw_lim_events                135315                       # number cycles where commit BW limit reached
system.cpu.commit.commitNonSpecStalls              18                       # The number of times commit has been forced to stall to communicate backwards
system.cpu.commit.commitSquashedInsts          368646                       # The number of squashed insts skipped by commit
system.cpu.commit.committedInsts              1275009                       # Number of instructions committed
system.cpu.commit.committedOps                2838973                       # Number of ops (including micro ops) committed
system.cpu.commit.committed_per_cycle::samples      1076025                       # Number of insts commited each cycle
system.cpu.commit.committed_per_cycle::mean     2.638389                       # Number of insts commited each cycle
system.cpu.commit.committed_per_cycle::stdev     2.560210                       # Number of insts commited each cycle
system.cpu.commit.committed_per_cycle::underflows            0      0.00%      0.00% # Number of insts commited each cycle
system.cpu.commit.committed_per_cycle::0       236018     21.93%     21.93% # Number of insts commited each cycle
system.cpu.commit.committed_per_cycle::1       239157     22.23%     44.16% # Number of insts commited each cycle
system.cpu.commit.committed_per_cycle::2       130407     12.12%     56.28% # Number of insts commited each cycle
system.cpu.commit.committed_per_cycle::3       193049     17.94%     74.22% # Number of insts commited each cycle
system.cpu.commit.committed_per_cycle::4        84649      7.87%     82.09% # Number of insts commited each cycle
system.cpu.commit.committed_per_cycle::5        19493      1.81%     83.90% # Number of insts commited each cycle
system.cpu.commit.committed_per_cycle::6        24285      2.26%     86.16% # Number of insts commited each cycle
system.cpu.commit.committed_per_cycle::7        13652      1.27%     87.42% # Number of insts commited each cycle
system.cpu.commit.committed_per_cycle::8       135315     12.58%    100.00% # Number of insts commited each cycle
system.cpu.commit.committed_per_cycle::overflows            0      0.00%    100.00% # Number of insts commited each cycle
system.cpu.commit.committed_per_cycle::min_value            0                       # Number of insts commited each cycle
system.cpu.commit.committed_per_cycle::max_value            8                       # Number of insts commited each cycle
system.cpu.commit.committed_per_cycle::total      1076025                       # Number of insts commited each cycle
system.cpu.commit.fp_insts                      58537                       # Number of committed floating point instructions.
system.cpu.commit.function_calls                13202                       # Number of function calls committed.
system.cpu.commit.int_insts                   2713218                       # Number of committed integer instructions.
system.cpu.commit.loads                        238330                       # Number of loads committed
system.cpu.commit.membars                           0                       # Number of memory barriers committed
system.cpu.commit.op_class_0::No_OpClass        92321      3.25%      3.25% # Class of committed instruction
system.cpu.commit.op_class_0::IntAlu          2276626     80.19%     83.44% # Class of committed instruction
system.cpu.commit.op_class_0::IntMult            1358      0.05%     83.49% # Class of committed instruction
system.cpu.commit.op_class_0::IntDiv            35804      1.26%     84.75% # Class of committed instruction
system.cpu.commit.op_class_0::FloatAdd           2060      0.07%     84.83% # Class of committed instruction
system.cpu.commit.op_class_0::FloatCmp              0      0.00%     84.83% # Class of committed instruction
system.cpu.commit.op_class_0::FloatCvt              0      0.00%     84.83% # Class of committed instruction
system.cpu.commit.op_class_0::FloatMult             0      0.00%     84.83% # Class of committed instruction
system.cpu.commit.op_class_0::FloatMultAcc            0      0.00%     84.83% # Class of committed instruction
system.cpu.commit.op_class_0::FloatDiv              0      0.00%     84.83% # Class of committed instruction
system.cpu.commit.op_class_0::FloatMisc             0      0.00%     84.83% # Class of committed instruction
system.cpu.commit.op_class_0::FloatSqrt             0      0.00%     84.83% # Class of committed instruction
system.cpu.commit.op_class_0::SimdAdd             374      0.01%     84.84% # Class of committed instruction
system.cpu.commit.op_class_0::SimdAddAcc            0      0.00%     84.84% # Class of committed instruction
system.cpu.commit.op_class_0::SimdAlu           16500      0.58%     85.42% # Class of committed instruction
system.cpu.commit.op_class_0::SimdCmp              30      0.00%     85.42% # Class of committed instruction
system.cpu.commit.op_class_0::SimdCvt           10400      0.37%     85.79% # Class of committed instruction
system.cpu.commit.op_class_0::SimdMisc          10506      0.37%     86.16% # Class of committed instruction
system.cpu.commit.op_class_0::SimdMult              0      0.00%     86.16% # Class of committed instruction
system.cpu.commit.op_class_0::SimdMultAcc            0      0.00%     86.16% # Class of committed instruction
system.cpu.commit.op_class_0::SimdShift           186      0.01%     86.16% # Class of committed instruction
system.cpu.commit.op_class_0::SimdShiftAcc            0      0.00%     86.16% # Class of committed instruction
system.cpu.commit.op_class_0::SimdDiv               0      0.00%     86.16% # Class of committed instruction
system.cpu.commit.op_class_0::SimdSqrt              0      0.00%     86.16% # Class of committed instruction
system.cpu.commit.op_class_0::SimdFloatAdd         1024      0.04%     86.20% # Class of committed instruction
system.cpu.commit.op_class_0::SimdFloatAlu            0      0.00%     86.20% # Class of committed instruction
system.cpu.commit.op_class_0::SimdFloatCmp            0      0.00%     86.20% # Class of committed instruction
system.cpu.commit.op_class_0::SimdFloatCvt            0      0.00%     86.20% # Class of committed instruction
system.cpu.commit.op_class_0::SimdFloatDiv            0      0.00%     86.20% # Class of committed instruction
system.cpu.commit.op_class_0::SimdFloatMisc            0      0.00%     86.20% # Class of committed instruction
system.cpu.commit.op_class_0::SimdFloatMult            0      0.00%     86.20% # Class of committed instruction
system.cpu.commit.op_class_0::SimdFloatMultAcc            0      0.00%     86.20% # Class of committed instruction
system.cpu.commit.op_class_0::SimdFloatSqrt            0      0.00%     86.20% # Class of committed instruction
system.cpu.commit.op_class_0::SimdReduceAdd            0      0.00%     86.20% # Class of committed instruction
system.cpu.commit.op_class_0::SimdReduceAlu            0      0.00%     86.20% # Class of committed instruction
system.cpu.commit.op_class_0::SimdReduceCmp            0      0.00%     86.20% # Class of committed instruction
system.cpu.commit.op_class_0::SimdFloatReduceAdd            0      0.00%     86.20% # Class of committed instruction
system.cpu.commit.op_class_0::SimdFloatReduceCmp            0      0.00%     86.20% # Class of committed instruction
system.cpu.commit.op_class_0::SimdAes               0      0.00%     86.20% # Class of committed instruction
system.cpu.commit.op_class_0::SimdAesMix            0      0.00%     86.20% # Class of committed instruction
system.cpu.commit.op_class_0::SimdSha1Hash            0      0.00%     86.20% # Class of committed instruction
system.cpu.commit.op_class_0::SimdSha1Hash2            0      0.00%     86.20% # Class of committed instruction
system.cpu.commit.op_class_0::SimdSha256Hash            0      0.00%     86.20% # Class of committed instruction
system.cpu.commit.op_class_0::SimdSha256Hash2            0      0.00%     86.20% # Class of committed instruction
system.cpu.commit.op_class_0::SimdShaSigma2            0      0.00%     86.20% # Class of committed instruction
system.cpu.commit.op_class_0::SimdShaSigma3            0      0.00%     86.20% # Class of committed instruction
system.cpu.commit.op_class_0::SimdPredAlu            0      0.00%     86.20% # Class of committed instruction
system.cpu.commit.op_class_0::MemRead          223852      7.88%     94.08% # Class of committed instruction
system.cpu.commit.op_class_0::MemWrite         150987      5.32%     99.40% # Class of committed instruction
system.cpu.commit.op_class_0::FloatMemRead        14478      0.51%     99.91% # Class of committed instruction
system.cpu.commit.op_class_0::FloatMemWrite         2467      0.09%    100.00% # Class of committed instruction
system.cpu.commit.op_class_0::IprAccess             0      0.00%    100.00% # Class of committed instruction
system.cpu.commit.op_class_0::InstPrefetch            0      0.00%    100.00% # Class of committed instruction
system.cpu.commit.op_class_0::total           2838973                       # Class of committed instruction
system.cpu.commit.refs                         391784                       # Number of memory references committed
system.cpu.commit.swp_count                         0                       # Number of s/w prefetches committed
system.cpu.commit.vec_insts                         0                       # Number of committed Vector instructions.
system.cpu.committedInsts                     1275009                       # Number of Instructions Simulated
system.cpu.committedOps                       2838973                       # Number of Ops (including micro ops) Simulated
system.cpu.cpi                               0.885449                       # CPI: Cycles Per Instruction
system.cpu.cpi_total                         0.885449                       # CPI: Total CPI of All Threads
system.cpu.dcache.prefetcher.num_hwpf_issued       850962                       # number of hwpf issued
system.cpu.dcache.prefetcher.pfBufferHit        63597                       # number of redundant prefetches already in prefetch queue
system.cpu.dcache.prefetcher.pfIdentified       925848                       # number of prefetch candidates identified
system.cpu.dcache.prefetcher.pfInCache              0                       # number of redundant prefetches already in cache/mshr dropped
system.cpu.dcache.prefetcher.pfRemovedFull            0                       # number of prefetches dropped due to prefetch queue size
system.cpu.dcache.prefetcher.pfSpanPage         38328                       # number of prefetches that crossed the page
system.cpu.decode.BlockedCycles                 97675                       # Number of cycles decode is blocked
system.cpu.decode.DecodedInsts                3352419                       # Number of instructions handled by decode
system.cpu.decode.IdleCycles                   465590                       # Number of cycles decode is idle
system.cpu.decode.RunCycles                    513632                       # Number of cycles decode is running
system.cpu.decode.SquashCycles                  12434                       # Number of cycles decode is squashing
system.cpu.decode.UnblockCycles                 37497                       # Number of cycles decode is unblocking
system.cpu.dtb.rdAccesses                      262368                       # TLB accesses on read requests
system.cpu.dtb.rdMisses                           249                       # TLB misses on read requests
system.cpu.dtb.wrAccesses                      171061                       # TLB accesses on write requests
system.cpu.dtb.wrMisses                            25                       # TLB misses on write requests
system.cpu.fetch.Branches                      498816                       # Number of branches that fetch encountered
system.cpu.fetch.CacheLines                    324508                       # Number of cache lines fetched
system.cpu.fetch.Cycles                        663029                       # Number of cycles fetch has run and was not squashing or blocked
system.cpu.fetch.IcacheSquashes                  4390                       # Number of outstanding Icache misses that were squashed
system.cpu.fetch.Insts                        1464726                       # Number of instructions fetch has processed
system.cpu.fetch.MiscStallCycles                   13                       # Number of cycles fetch has spent waiting on interrupts, or bad addresses, or out of MSHRs
system.cpu.fetch.PendingQuiesceStallCycles            7                       # Number of stall cycles due to pending quiesce instructions
system.cpu.fetch.PendingTrapStallCycles            68                       # Number of stall cycles due to pending traps
system.cpu.fetch.SquashCycles                   24868                       # Number of cycles fetch has spent squashing
system.cpu.fetch.branchRate                  0.441839                       # Number of branch fetches per cycle
system.cpu.fetch.icacheStallCycles             451277                       # Number of cycles fetch is stalled on an Icache miss
system.cpu.fetch.predictedBranches             323530                       # Number of branches that fetch has predicted taken
system.cpu.fetch.rate                        1.297418                       # Number of inst fetches per cycle
system.cpu.fetch.rateDist::samples            1126828                       # Number of instructions fetched each cycle (Total)
system.cpu.fetch.rateDist::mean              3.125118                       # Number of instructions fetched each cycle (Total)
system.cpu.fetch.rateDist::stdev             3.509077                       # Number of instructions fetched each cycle (Total)
system.cpu.fetch.rateDist::underflows               0      0.00%      0.00% # Number of instructions fetched each cycle (Total)
system.cpu.fetch.rateDist::0                   545320     48.39%     48.39% # Number of instructions fetched each cycle (Total)
system.cpu.fetch.rateDist::1                    38695      3.43%     51.83% # Number of instructions fetched each cycle (Total)
system.cpu.fetch.rateDist::2                    44212      3.92%     55.75% # Number of instructions fetched each cycle (Total)
system.cpu.fetch.rateDist::3                    41025      3.64%     59.39% # Number of instructions fetched each cycle (Total)
system.cpu.fetch.rateDist::4                    44624      3.96%     63.35% # Number of instructions fetched each cycle (Total)
system.cpu.fetch.rateDist::5                    41970      3.72%     67.08% # Number of instructions fetched each cycle (Total)
system.cpu.fetch.rateDist::6                    31685      2.81%     69.89% # Number of instructions fetched each cycle (Total)
system.cpu.fetch.rateDist::7                    21556      1.91%     71.80% # Number of instructions fetched each cycle (Total)
system.cpu.fetch.rateDist::8                   317741     28.20%    100.00% # Number of instructions fetched each cycle (Total)
system.cpu.fetch.rateDist::overflows                0      0.00%    100.00% # Number of instructions fetched each cycle (Total)
system.cpu.fetch.rateDist::min_value                0                       # Number of instructions fetched each cycle (Total)
system.cpu.fetch.rateDist::max_value                8                       # Number of instructions fetched each cycle (Total)
system.cpu.fetch.rateDist::total              1126828                       # Number of instructions fetched each cycle (Total)
system.cpu.fp_regfile_reads                     93145                       # number of floating regfile reads
system.cpu.fp_regfile_writes                    56315                       # number of floating regfile writes
system.cpu.icache.prefetcher.num_hwpf_issued      2509036                       # number of hwpf issued
system.cpu.icache.prefetcher.pfBufferHit         9591                       # number of redundant prefetches already in prefetch queue
system.cpu.icache.prefetcher.pfIdentified      2521851                       # number of prefetch candidates identified
system.cpu.icache.prefetcher.pfInCache              0                       # number of redundant prefetches already in cache/mshr dropped
system.cpu.icache.prefetcher.pfRemovedFull            0                       # number of prefetches dropped due to prefetch queue size
system.cpu.icache.prefetcher.pfSpanPage         74213                       # number of prefetches that crossed the page
system.cpu.idleCycles                            2127                       # Total number of cycles that the CPU has spent unscheduled due to idling
system.cpu.iew.branchMispredicts                13839                       # Number of branch mispredicts detected at execute
system.cpu.iew.exec_branches                   405097                       # Number of branches executed
system.cpu.iew.exec_nop                             0                       # number of nop insts executed
system.cpu.iew.exec_rate                     2.664421                       # Inst execution rate
system.cpu.iew.exec_refs                       432179                       # number of memory reference insts executed
system.cpu.iew.exec_stores                     171060                       # Number of stores executed
system.cpu.iew.exec_swp                             0                       # number of swp insts executed
system.cpu.iew.iewBlockCycles                   38368                       # Number of cycles IEW is blocking
system.cpu.iew.iewDispLoadInsts                273048                       # Number of dispatched load instructions
system.cpu.iew.iewDispNonSpecInsts                 29                       # Number of dispatched non-speculative instructions
system.cpu.iew.iewDispSquashedInsts               345                       # Number of squashed instructions skipped by dispatch
system.cpu.iew.iewDispStoreInsts               195878                       # Number of dispatched store instructions
system.cpu.iew.iewDispatchedInsts             3228373                       # Number of instructions dispatched to IQ
system.cpu.iew.iewExecLoadInsts                261119                       # Number of load instructions executed
system.cpu.iew.iewExecSquashedInsts             27805                       # Number of squashed instructions skipped in execute
system.cpu.iew.iewExecutedInsts               3008011                       # Number of executed instructions
system.cpu.iew.iewIQFullEvents                      0                       # Number of times the IQ has become full, causing a stall
system.cpu.iew.iewIdleCycles                        0                       # Number of cycles IEW is idle
system.cpu.iew.iewLSQFullEvents                    37                       # Number of times the LSQ has become full, causing a stall
system.cpu.iew.iewSquashCycles                  12434                       # Number of cycles IEW is squashing
system.cpu.iew.iewUnblockCycles                    36                       # Number of cycles IEW is unblocking
system.cpu.iew.lsq.thread0.blockedLoads             0                       # Number of blocked loads due to partial load-store forwarding
system.cpu.iew.lsq.thread0.cacheBlocked             0                       # Number of times an access to memory failed due to the cache being blocked
system.cpu.iew.lsq.thread0.forwLoads             9810                       # Number of loads that had data forwarded from stores
system.cpu.iew.lsq.thread0.ignoredResponses           15                       # Number of memory responses ignored because the instruction is squashed
system.cpu.iew.lsq.thread0.invAddrLoads             0                       # Number of loads ignored due to an invalid address
system.cpu.iew.lsq.thread0.invAddrSwpfs             0                       # Number of software prefetches ignored due to an invalid address
system.cpu.iew.lsq.thread0.memOrderViolation           14                       # Number of memory ordering violations
system.cpu.iew.lsq.thread0.rescheduledLoads            0                       # Number of loads that were rescheduled
system.cpu.iew.lsq.thread0.squashedLoads        34718                       # Number of loads squashed
system.cpu.iew.lsq.thread0.squashedStores        42424                       # Number of stores squashed
system.cpu.iew.memOrderViolationEvents             14                       # Number of memory order violations
system.cpu.iew.predictedNotTakenIncorrect         8340                       # Number of branches that were predicted not taken incorrectly
system.cpu.iew.predictedTakenIncorrect           5499                       # Number of branches that were predicted taken incorrectly
system.cpu.iew.wb_consumers                   3608156                       # num instructions consuming a value
system.cpu.iew.wb_count                       2995281                       # cumulative count of insts written-back
system.cpu.iew.wb_fanout                     0.580457                       # average fanout of values written-back
system.cpu.iew.wb_producers                   2094380                       # num instructions producing a value
system.cpu.iew.wb_rate                       2.653145                       # insts written-back per cycle
system.cpu.iew.wb_sent                        3004447                       # cumulative count of insts sent to commit
system.cpu.int_regfile_reads                  4508150                       # number of integer regfile reads
system.cpu.int_regfile_writes                 2425083                       # number of integer regfile writes
system.cpu.ipc                               1.129371                       # IPC: Instructions Per Cycle
system.cpu.ipc_total                         1.129371                       # IPC: Total IPC of All Threads
system.cpu.iq.FU_type_0::No_OpClass            105085      3.46%      3.46% # Type of FU issued
system.cpu.iq.FU_type_0::IntAlu               2409320     79.36%     82.82% # Type of FU issued
system.cpu.iq.FU_type_0::IntMult                 1358      0.04%     82.87% # Type of FU issued
system.cpu.iq.FU_type_0::IntDiv                 39012      1.29%     84.15% # Type of FU issued
system.cpu.iq.FU_type_0::FloatAdd                2261      0.07%     84.23% # Type of FU issued
system.cpu.iq.FU_type_0::FloatCmp                   0      0.00%     84.23% # Type of FU issued
system.cpu.iq.FU_type_0::FloatCvt                   0      0.00%     84.23% # Type of FU issued
system.cpu.iq.FU_type_0::FloatMult                  0      0.00%     84.23% # Type of FU issued
system.cpu.iq.FU_type_0::FloatMultAcc               0      0.00%     84.23% # Type of FU issued
system.cpu.iq.FU_type_0::FloatDiv                   0      0.00%     84.23% # Type of FU issued
system.cpu.iq.FU_type_0::FloatMisc                  0      0.00%     84.23% # Type of FU issued
system.cpu.iq.FU_type_0::FloatSqrt                  0      0.00%     84.23% # Type of FU issued
system.cpu.iq.FU_type_0::SimdAdd                  378      0.01%     84.24% # Type of FU issued
system.cpu.iq.FU_type_0::SimdAddAcc                 0      0.00%     84.24% # Type of FU issued
system.cpu.iq.FU_type_0::SimdAlu                16685      0.55%     84.79% # Type of FU issued
system.cpu.iq.FU_type_0::SimdCmp                   72      0.00%     84.79% # Type of FU issued
system.cpu.iq.FU_type_0::SimdCvt                10435      0.34%     85.14% # Type of FU issued
system.cpu.iq.FU_type_0::SimdMisc               10524      0.35%     85.48% # Type of FU issued
system.cpu.iq.FU_type_0::SimdMult                   0      0.00%     85.48% # Type of FU issued
system.cpu.iq.FU_type_0::SimdMultAcc                0      0.00%     85.48% # Type of FU issued
system.cpu.iq.FU_type_0::SimdShift                188      0.01%     85.49% # Type of FU issued
system.cpu.iq.FU_type_0::SimdShiftAcc               0      0.00%     85.49% # Type of FU issued
system.cpu.iq.FU_type_0::SimdDiv                    0      0.00%     85.49% # Type of FU issued
system.cpu.iq.FU_type_0::SimdSqrt                   0      0.00%     85.49% # Type of FU issued
system.cpu.iq.FU_type_0::SimdFloatAdd            1024      0.03%     85.52% # Type of FU issued
system.cpu.iq.FU_type_0::SimdFloatAlu               0      0.00%     85.52% # Type of FU issued
system.cpu.iq.FU_type_0::SimdFloatCmp               0      0.00%     85.52% # Type of FU issued
system.cpu.iq.FU_type_0::SimdFloatCvt               0      0.00%     85.52% # Type of FU issued
system.cpu.iq.FU_type_0::SimdFloatDiv               0      0.00%     85.52% # Type of FU issued
system.cpu.iq.FU_type_0::SimdFloatMisc              0      0.00%     85.52% # Type of FU issued
system.cpu.iq.FU_type_0::SimdFloatMult              0      0.00%     85.52% # Type of FU issued
system.cpu.iq.FU_type_0::SimdFloatMultAcc            0      0.00%     85.52% # Type of FU issued
system.cpu.iq.FU_type_0::SimdFloatSqrt              0      0.00%     85.52% # Type of FU issued
system.cpu.iq.FU_type_0::SimdReduceAdd              0      0.00%     85.52% # Type of FU issued
system.cpu.iq.FU_type_0::SimdReduceAlu              0      0.00%     85.52% # Type of FU issued
system.cpu.iq.FU_type_0::SimdReduceCmp              0      0.00%     85.52% # Type of FU issued
system.cpu.iq.FU_type_0::SimdFloatReduceAdd            0      0.00%     85.52% # Type of FU issued
system.cpu.iq.FU_type_0::SimdFloatReduceCmp            0      0.00%     85.52% # Type of FU issued
system.cpu.iq.FU_type_0::SimdAes                    0      0.00%     85.52% # Type of FU issued
system.cpu.iq.FU_type_0::SimdAesMix                 0      0.00%     85.52% # Type of FU issued
system.cpu.iq.FU_type_0::SimdSha1Hash               0      0.00%     85.52% # Type of FU issued
system.cpu.iq.FU_type_0::SimdSha1Hash2              0      0.00%     85.52% # Type of FU issued
system.cpu.iq.FU_type_0::SimdSha256Hash             0      0.00%     85.52% # Type of FU issued
system.cpu.iq.FU_type_0::SimdSha256Hash2            0      0.00%     85.52% # Type of FU issued
system.cpu.iq.FU_type_0::SimdShaSigma2              0      0.00%     85.52% # Type of FU issued
system.cpu.iq.FU_type_0::SimdShaSigma3              0      0.00%     85.52% # Type of FU issued
system.cpu.iq.FU_type_0::SimdPredAlu                0      0.00%     85.52% # Type of FU issued
system.cpu.iq.FU_type_0::MemRead               239013      7.87%     93.40% # Type of FU issued
system.cpu.iq.FU_type_0::MemWrite              161129      5.31%     98.70% # Type of FU issued
system.cpu.iq.FU_type_0::FloatMemRead           26655      0.88%     99.58% # Type of FU issued
system.cpu.iq.FU_type_0::FloatMemWrite          12677      0.42%    100.00% # Type of FU issued
system.cpu.iq.FU_type_0::IprAccess                  0      0.00%    100.00% # Type of FU issued
system.cpu.iq.FU_type_0::InstPrefetch               0      0.00%    100.00% # Type of FU issued
system.cpu.iq.FU_type_0::total                3035816                       # Type of FU issued
system.cpu.iq.fp_alu_accesses                   89655                       # Number of floating point alu accesses
system.cpu.iq.fp_inst_queue_reads              171736                       # Number of floating instruction queue reads
system.cpu.iq.fp_inst_queue_wakeup_accesses        77154                       # Number of floating instruction queue wakeup accesses
system.cpu.iq.fp_inst_queue_writes             112809                       # Number of floating instruction queue writes
system.cpu.iq.fu_busy_cnt                       49863                       # FU busy when requested
system.cpu.iq.fu_busy_rate                   0.016425                       # FU busy rate (busy events/executed inst)
system.cpu.iq.fu_full::No_OpClass                   0      0.00%      0.00% # attempts to use FU when none available
system.cpu.iq.fu_full::IntAlu                   40046     80.31%     80.31% # attempts to use FU when none available
system.cpu.iq.fu_full::IntMult                      0      0.00%     80.31% # attempts to use FU when none available
system.cpu.iq.fu_full::IntDiv                       0      0.00%     80.31% # attempts to use FU when none available
system.cpu.iq.fu_full::FloatAdd                     0      0.00%     80.31% # attempts to use FU when none available
system.cpu.iq.fu_full::FloatCmp                     0      0.00%     80.31% # attempts to use FU when none available
system.cpu.iq.fu_full::FloatCvt                     0      0.00%     80.31% # attempts to use FU when none available
system.cpu.iq.fu_full::FloatMult                    0      0.00%     80.31% # attempts to use FU when none available
system.cpu.iq.fu_full::FloatMultAcc                 0      0.00%     80.31% # attempts to use FU when none available
system.cpu.iq.fu_full::FloatDiv                     0      0.00%     80.31% # attempts to use FU when none available
system.cpu.iq.fu_full::FloatMisc                    0      0.00%     80.31% # attempts to use FU when none available
system.cpu.iq.fu_full::FloatSqrt                    0      0.00%     80.31% # attempts to use FU when none available
system.cpu.iq.fu_full::SimdAdd                      1      0.00%     80.31% # attempts to use FU when none available
system.cpu.iq.fu_full::SimdAddAcc                   0      0.00%     80.31% # attempts to use FU when none available
system.cpu.iq.fu_full::SimdAlu                   2066      4.14%     84.46% # attempts to use FU when none available
system.cpu.iq.fu_full::SimdCmp                      4      0.01%     84.47% # attempts to use FU when none available
system.cpu.iq.fu_full::SimdCvt                      2      0.00%     84.47% # attempts to use FU when none available
system.cpu.iq.fu_full::SimdMisc                  1043      2.09%     86.56% # attempts to use FU when none available
system.cpu.iq.fu_full::SimdMult                     0      0.00%     86.56% # attempts to use FU when none available
system.cpu.iq.fu_full::SimdMultAcc                  0      0.00%     86.56% # attempts to use FU when none available
system.cpu.iq.fu_full::SimdShift                    0      0.00%     86.56% # attempts to use FU when none available
system.cpu.iq.fu_full::SimdShiftAcc                 0      0.00%     86.56% # attempts to use FU when none available
system.cpu.iq.fu_full::SimdDiv                      0      0.00%     86.56% # attempts to use FU when none available
system.cpu.iq.fu_full::SimdSqrt                     0      0.00%     86.56% # attempts to use FU when none available
system.cpu.iq.fu_full::SimdFloatAdd                 0      0.00%     86.56% # attempts to use FU when none available
system.cpu.iq.fu_full::SimdFloatAlu                 0      0.00%     86.56% # attempts to use FU when none available
system.cpu.iq.fu_full::SimdFloatCmp                 0      0.00%     86.56% # attempts to use FU when none available
system.cpu.iq.fu_full::SimdFloatCvt                 0      0.00%     86.56% # attempts to use FU when none available
system.cpu.iq.fu_full::SimdFloatDiv                 0      0.00%     86.56% # attempts to use FU when none available
system.cpu.iq.fu_full::SimdFloatMisc                0      0.00%     86.56% # attempts to use FU when none available
system.cpu.iq.fu_full::SimdFloatMult                0      0.00%     86.56% # attempts to use FU when none available
system.cpu.iq.fu_full::SimdFloatMultAcc             0      0.00%     86.56% # attempts to use FU when none available
system.cpu.iq.fu_full::SimdFloatSqrt                0      0.00%     86.56% # attempts to use FU when none available
system.cpu.iq.fu_full::SimdReduceAdd                0      0.00%     86.56% # attempts to use FU when none available
system.cpu.iq.fu_full::SimdReduceAlu                0      0.00%     86.56% # attempts to use FU when none available
system.cpu.iq.fu_full::SimdReduceCmp                0      0.00%     86.56% # attempts to use FU when none available
system.cpu.iq.fu_full::SimdFloatReduceAdd            0      0.00%     86.56% # attempts to use FU when none available
system.cpu.iq.fu_full::SimdFloatReduceCmp            0      0.00%     86.56% # attempts to use FU when none available
system.cpu.iq.fu_full::SimdAes                      0      0.00%     86.56% # attempts to use FU when none available
system.cpu.iq.fu_full::SimdAesMix                   0      0.00%     86.56% # attempts to use FU when none available
system.cpu.iq.fu_full::SimdSha1Hash                 0      0.00%     86.56% # attempts to use FU when none available
system.cpu.iq.fu_full::SimdSha1Hash2                0      0.00%     86.56% # attempts to use FU when none available
system.cpu.iq.fu_full::SimdSha256Hash               0      0.00%     86.56% # attempts to use FU when none available
system.cpu.iq.fu_full::SimdSha256Hash2              0      0.00%     86.56% # attempts to use FU when none available
system.cpu.iq.fu_full::SimdShaSigma2                0      0.00%     86.56% # attempts to use FU when none available
system.cpu.iq.fu_full::SimdShaSigma3                0      0.00%     86.56% # attempts to use FU when none available
system.cpu.iq.fu_full::SimdPredAlu                  0      0.00%     86.56% # attempts to use FU when none available
system.cpu.iq.fu_full::MemRead                   1046      2.10%     88.66% # attempts to use FU when none available
system.cpu.iq.fu_full::MemWrite                   532      1.07%     89.73% # attempts to use FU when none available
system.cpu.iq.fu_full::FloatMemRead              4089      8.20%     97.93% # attempts to use FU when none available
system.cpu.iq.fu_full::FloatMemWrite             1034      2.07%    100.00% # attempts to use FU when none available
system.cpu.iq.fu_full::IprAccess                    0      0.00%    100.00% # attempts to use FU when none available
system.cpu.iq.fu_full::InstPrefetch                 0      0.00%    100.00% # attempts to use FU when none available
system.cpu.iq.int_alu_accesses                2890939                       # Number of integer alu accesses
system.cpu.iq.int_inst_queue_reads            7078011                       # Number of integer instruction queue reads
system.cpu.iq.int_inst_queue_wakeup_accesses      2918127                       # Number of integer instruction queue wakeup accesses
system.cpu.iq.int_inst_queue_writes           3504977                       # Number of integer instruction queue writes
system.cpu.iq.iqInstsAdded                    3228307                       # Number of instructions added to the IQ (excludes non-spec)
system.cpu.iq.iqInstsIssued                   3035816                       # Number of instructions issued
system.cpu.iq.iqNonSpecInstsAdded                  66                       # Number of non-speculative instructions added to the IQ
system.cpu.iq.iqSquashedInstsExamined          389399                       # Number of squashed instructions iterated over during squash; mainly for profiling
system.cpu.iq.iqSquashedInstsIssued              1424                       # Number of squashed instructions issued
system.cpu.iq.iqSquashedNonSpecRemoved             48                       # Number of squashed non-spec instructions that were removed
system.cpu.iq.iqSquashedOperandsExamined       823626                       # Number of squashed operands that are examined and possibly removed from graph
system.cpu.iq.issued_per_cycle::samples       1126828                       # Number of insts issued each cycle
system.cpu.iq.issued_per_cycle::mean         2.694125                       # Number of insts issued each cycle
system.cpu.iq.issued_per_cycle::stdev        2.058128                       # Number of insts issued each cycle
system.cpu.iq.issued_per_cycle::underflows            0      0.00%      0.00% # Number of insts issued each cycle
system.cpu.iq.issued_per_cycle::0              216529     19.22%     19.22% # Number of insts issued each cycle
system.cpu.iq.issued_per_cycle::1              183405     16.28%     35.49% # Number of insts issued each cycle
system.cpu.iq.issued_per_cycle::2              151748     13.47%     48.96% # Number of insts issued each cycle
system.cpu.iq.issued_per_cycle::3              163215     14.48%     63.44% # Number of insts issued each cycle
system.cpu.iq.issued_per_cycle::4              156486     13.89%     77.33% # Number of insts issued each cycle
system.cpu.iq.issued_per_cycle::5              135491     12.02%     89.35% # Number of insts issued each cycle
system.cpu.iq.issued_per_cycle::6               90481      8.03%     97.38% # Number of insts issued each cycle
system.cpu.iq.issued_per_cycle::7               22799      2.02%     99.41% # Number of insts issued each cycle
system.cpu.iq.issued_per_cycle::8                6674      0.59%    100.00% # Number of insts issued each cycle
system.cpu.iq.issued_per_cycle::overflows            0      0.00%    100.00% # Number of insts issued each cycle
system.cpu.iq.issued_per_cycle::min_value            0                       # Number of insts issued each cycle
system.cpu.iq.issued_per_cycle::max_value            8                       # Number of insts issued each cycle
system.cpu.iq.issued_per_cycle::total         1126828                       # Number of insts issued each cycle
system.cpu.iq.rate                           2.689050                       # Inst issue rate
system.cpu.iq.vec_alu_accesses                      0                       # Number of vector alu accesses
system.cpu.iq.vec_inst_queue_reads                  0                       # Number of vector instruction queue reads
system.cpu.iq.vec_inst_queue_wakeup_accesses            0                       # Number of vector instruction queue wakeup accesses
system.cpu.iq.vec_inst_queue_writes                 0                       # Number of vector instruction queue writes
system.cpu.itb.rdAccesses                           0                       # TLB accesses on read requests
system.cpu.itb.rdMisses                             0                       # TLB misses on read requests
system.cpu.itb.wrAccesses                      324526                       # TLB accesses on write requests
system.cpu.itb.wrMisses                            64                       # TLB misses on write requests
system.cpu.memDep0.conflictingLoads              3185                       # Number of conflicting loads.
system.cpu.memDep0.conflictingStores              242                       # Number of conflicting stores.
system.cpu.memDep0.insertedLoads               273048                       # Number of loads inserted to the mem dependence unit.
system.cpu.memDep0.insertedStores              195878                       # Number of stores inserted to the mem dependence unit.
system.cpu.misc_regfile_reads                 1078653                       # number of misc regfile reads
system.cpu.numCycles                          1128955                       # number of cpu cycles simulated
system.cpu.numWorkItemsCompleted                    0                       # number of work items this cpu completed
system.cpu.numWorkItemsStarted                      0                       # number of work items this cpu started
system.cpu.rename.BlockCycles                   39325                       # Number of cycles rename is blocking
system.cpu.rename.CommittedMaps               3305281                       # Number of HB maps that are committed
system.cpu.rename.IQFullEvents                  42684                       # Number of times rename has blocked due to IQ full
system.cpu.rename.IdleCycles                   479243                       # Number of cycles rename is idle
system.cpu.rename.LQFullEvents                     10                       # Number of times rename has blocked due to LQ full
system.cpu.rename.RenameLookups               8850224                       # Number of register rename lookups that rename has made
system.cpu.rename.RenamedInsts                3298531                       # Number of instructions processed by rename
system.cpu.rename.RenamedOperands             3886485                       # Number of destination operands rename has renamed
system.cpu.rename.RunCycles                    534215                       # Number of cycles rename is running
system.cpu.rename.SQFullEvents                  15208                       # Number of times rename has blocked due to SQ full
system.cpu.rename.SquashCycles                  12434                       # Number of cycles rename is squashing
system.cpu.rename.UnblockCycles                 61141                       # Number of cycles rename is unblocking
system.cpu.rename.UndoneMaps                   581204                       # Number of HB maps that are undone due to squashing
system.cpu.rename.fp_rename_lookups            101498                       # Number of floating rename lookups
system.cpu.rename.int_rename_lookups          5137827                       # Number of integer rename lookups
system.cpu.rename.serializeStallCycles            470                       # count of cycles rename stalled for serializing inst
system.cpu.rename.serializingInsts                 36                       # count of serializing insts renamed
system.cpu.rename.skidInsts                    138873                       # count of insts added to the skid buffer
system.cpu.rename.tempSerializingInsts             33                       # count of temporary serializing insts renamed
system.cpu.rob.rob_reads                      4141777                       # The number of ROB reads
system.cpu.rob.rob_writes                     6466204                       # The number of ROB writes
system.cpu.timesIdled                            1162                       # Number of times that the entire CPU went into an idle state and unscheduled itself
system.cpu.workload.numSyscalls                    16                       # Number of system calls
system.fft_transpose_datapath.acp_latency::samples            0                       # Histogram of ACP transaction total latency
system.fft_transpose_datapath.acp_latency::mean          nan                       # Histogram of ACP transaction total latency
system.fft_transpose_datapath.acp_latency::gmean          nan                       # Histogram of ACP transaction total latency
system.fft_transpose_datapath.acp_latency::stdev          nan                       # Histogram of ACP transaction total latency
system.fft_transpose_datapath.acp_latency::0            0                       # Histogram of ACP transaction total latency
system.fft_transpose_datapath.acp_latency::1            0                       # Histogram of ACP transaction total latency
system.fft_transpose_datapath.acp_latency::2            0                       # Histogram of ACP transaction total latency
system.fft_transpose_datapath.acp_latency::3            0                       # Histogram of ACP transaction total latency
system.fft_transpose_datapath.acp_latency::4            0                       # Histogram of ACP transaction total latency
system.fft_transpose_datapath.acp_latency::5            0                       # Histogram of ACP transaction total latency
system.fft_transpose_datapath.acp_latency::6            0                       # Histogram of ACP transaction total latency
system.fft_transpose_datapath.acp_latency::7            0                       # Histogram of ACP transaction total latency
system.fft_transpose_datapath.acp_latency::8            0                       # Histogram of ACP transaction total latency
system.fft_transpose_datapath.acp_latency::9            0                       # Histogram of ACP transaction total latency
system.fft_transpose_datapath.acp_latency::10            0                       # Histogram of ACP transaction total latency
system.fft_transpose_datapath.acp_latency::11            0                       # Histogram of ACP transaction total latency
system.fft_transpose_datapath.acp_latency::12            0                       # Histogram of ACP transaction total latency
system.fft_transpose_datapath.acp_latency::13            0                       # Histogram of ACP transaction total latency
system.fft_transpose_datapath.acp_latency::14            0                       # Histogram of ACP transaction total latency
system.fft_transpose_datapath.acp_latency::15            0                       # Histogram of ACP transaction total latency
system.fft_transpose_datapath.acp_latency::16            0                       # Histogram of ACP transaction total latency
system.fft_transpose_datapath.acp_latency::17            0                       # Histogram of ACP transaction total latency
system.fft_transpose_datapath.acp_latency::18            0                       # Histogram of ACP transaction total latency
system.fft_transpose_datapath.acp_latency::19            0                       # Histogram of ACP transaction total latency
system.fft_transpose_datapath.acp_latency::20            0                       # Histogram of ACP transaction total latency
system.fft_transpose_datapath.acp_latency::21            0                       # Histogram of ACP transaction total latency
system.fft_transpose_datapath.acp_latency::22            0                       # Histogram of ACP transaction total latency
system.fft_transpose_datapath.acp_latency::23            0                       # Histogram of ACP transaction total latency
system.fft_transpose_datapath.acp_latency::24            0                       # Histogram of ACP transaction total latency
system.fft_transpose_datapath.acp_latency::25            0                       # Histogram of ACP transaction total latency
system.fft_transpose_datapath.acp_latency::26            0                       # Histogram of ACP transaction total latency
system.fft_transpose_datapath.acp_latency::27            0                       # Histogram of ACP transaction total latency
system.fft_transpose_datapath.acp_latency::28            0                       # Histogram of ACP transaction total latency
system.fft_transpose_datapath.acp_latency::29            0                       # Histogram of ACP transaction total latency
system.fft_transpose_datapath.acp_latency::total            0                       # Histogram of ACP transaction total latency
system.fft_transpose_datapath.acp_queue_time::samples            0                       # Histogram of time ACP request spent in queue
system.fft_transpose_datapath.acp_queue_time::mean          nan                       # Histogram of time ACP request spent in queue
system.fft_transpose_datapath.acp_queue_time::gmean          nan                       # Histogram of time ACP request spent in queue
system.fft_transpose_datapath.acp_queue_time::stdev          nan                       # Histogram of time ACP request spent in queue
system.fft_transpose_datapath.acp_queue_time::0            0                       # Histogram of time ACP request spent in queue
system.fft_transpose_datapath.acp_queue_time::1            0                       # Histogram of time ACP request spent in queue
system.fft_transpose_datapath.acp_queue_time::2            0                       # Histogram of time ACP request spent in queue
system.fft_transpose_datapath.acp_queue_time::3            0                       # Histogram of time ACP request spent in queue
system.fft_transpose_datapath.acp_queue_time::4            0                       # Histogram of time ACP request spent in queue
system.fft_transpose_datapath.acp_queue_time::5            0                       # Histogram of time ACP request spent in queue
system.fft_transpose_datapath.acp_queue_time::6            0                       # Histogram of time ACP request spent in queue
system.fft_transpose_datapath.acp_queue_time::7            0                       # Histogram of time ACP request spent in queue
system.fft_transpose_datapath.acp_queue_time::8            0                       # Histogram of time ACP request spent in queue
system.fft_transpose_datapath.acp_queue_time::9            0                       # Histogram of time ACP request spent in queue
system.fft_transpose_datapath.acp_queue_time::10            0                       # Histogram of time ACP request spent in queue
system.fft_transpose_datapath.acp_queue_time::11            0                       # Histogram of time ACP request spent in queue
system.fft_transpose_datapath.acp_queue_time::12            0                       # Histogram of time ACP request spent in queue
system.fft_transpose_datapath.acp_queue_time::13            0                       # Histogram of time ACP request spent in queue
system.fft_transpose_datapath.acp_queue_time::14            0                       # Histogram of time ACP request spent in queue
system.fft_transpose_datapath.acp_queue_time::15            0                       # Histogram of time ACP request spent in queue
system.fft_transpose_datapath.acp_queue_time::16            0                       # Histogram of time ACP request spent in queue
system.fft_transpose_datapath.acp_queue_time::17            0                       # Histogram of time ACP request spent in queue
system.fft_transpose_datapath.acp_queue_time::18            0                       # Histogram of time ACP request spent in queue
system.fft_transpose_datapath.acp_queue_time::19            0                       # Histogram of time ACP request spent in queue
system.fft_transpose_datapath.acp_queue_time::20            0                       # Histogram of time ACP request spent in queue
system.fft_transpose_datapath.acp_queue_time::21            0                       # Histogram of time ACP request spent in queue
system.fft_transpose_datapath.acp_queue_time::22            0                       # Histogram of time ACP request spent in queue
system.fft_transpose_datapath.acp_queue_time::23            0                       # Histogram of time ACP request spent in queue
system.fft_transpose_datapath.acp_queue_time::24            0                       # Histogram of time ACP request spent in queue
system.fft_transpose_datapath.acp_queue_time::25            0                       # Histogram of time ACP request spent in queue
system.fft_transpose_datapath.acp_queue_time::26            0                       # Histogram of time ACP request spent in queue
system.fft_transpose_datapath.acp_queue_time::27            0                       # Histogram of time ACP request spent in queue
system.fft_transpose_datapath.acp_queue_time::28            0                       # Histogram of time ACP request spent in queue
system.fft_transpose_datapath.acp_queue_time::29            0                       # Histogram of time ACP request spent in queue
system.fft_transpose_datapath.acp_queue_time::total            0                       # Histogram of time ACP request spent in queue
system.fft_transpose_datapath.cache.prefetcher.num_hwpf_issued            0                       # number of hwpf issued
system.fft_transpose_datapath.cache.prefetcher.pfBufferHit            0                       # number of redundant prefetches already in prefetch queue
system.fft_transpose_datapath.cache.prefetcher.pfIdentified            0                       # number of prefetch candidates identified
system.fft_transpose_datapath.cache.prefetcher.pfInCache            0                       # number of redundant prefetches already in cache/mshr dropped
system.fft_transpose_datapath.cache.prefetcher.pfRemovedFull            0                       # number of prefetches dropped due to prefetch queue size
system.fft_transpose_datapath.cache.prefetcher.pfSpanPage            0                       # number of prefetches that crossed the page
system.fft_transpose_datapath.cache_queue_reads            0                       # Number of reads to the fft_transpose_datapath.cache_queue
system.fft_transpose_datapath.cache_queue_writes            0                       # Number of writes to the fft_transpose_datapath.cache_queue
system.fft_transpose_datapath.dcache_latency::samples            0                       # Histogram of dcache total access latency
system.fft_transpose_datapath.dcache_latency::mean          nan                       # Histogram of dcache total access latency
system.fft_transpose_datapath.dcache_latency::gmean          nan                       # Histogram of dcache total access latency
system.fft_transpose_datapath.dcache_latency::stdev          nan                       # Histogram of dcache total access latency
system.fft_transpose_datapath.dcache_latency::0            0                       # Histogram of dcache total access latency
system.fft_transpose_datapath.dcache_latency::1            0                       # Histogram of dcache total access latency
system.fft_transpose_datapath.dcache_latency::2            0                       # Histogram of dcache total access latency
system.fft_transpose_datapath.dcache_latency::3            0                       # Histogram of dcache total access latency
system.fft_transpose_datapath.dcache_latency::4            0                       # Histogram of dcache total access latency
system.fft_transpose_datapath.dcache_latency::5            0                       # Histogram of dcache total access latency
system.fft_transpose_datapath.dcache_latency::6            0                       # Histogram of dcache total access latency
system.fft_transpose_datapath.dcache_latency::7            0                       # Histogram of dcache total access latency
system.fft_transpose_datapath.dcache_latency::8            0                       # Histogram of dcache total access latency
system.fft_transpose_datapath.dcache_latency::9            0                       # Histogram of dcache total access latency
system.fft_transpose_datapath.dcache_latency::10            0                       # Histogram of dcache total access latency
system.fft_transpose_datapath.dcache_latency::11            0                       # Histogram of dcache total access latency
system.fft_transpose_datapath.dcache_latency::12            0                       # Histogram of dcache total access latency
system.fft_transpose_datapath.dcache_latency::13            0                       # Histogram of dcache total access latency
system.fft_transpose_datapath.dcache_latency::14            0                       # Histogram of dcache total access latency
system.fft_transpose_datapath.dcache_latency::15            0                       # Histogram of dcache total access latency
system.fft_transpose_datapath.dcache_latency::16            0                       # Histogram of dcache total access latency
system.fft_transpose_datapath.dcache_latency::17            0                       # Histogram of dcache total access latency
system.fft_transpose_datapath.dcache_latency::18            0                       # Histogram of dcache total access latency
system.fft_transpose_datapath.dcache_latency::19            0                       # Histogram of dcache total access latency
system.fft_transpose_datapath.dcache_latency::20            0                       # Histogram of dcache total access latency
system.fft_transpose_datapath.dcache_latency::21            0                       # Histogram of dcache total access latency
system.fft_transpose_datapath.dcache_latency::22            0                       # Histogram of dcache total access latency
system.fft_transpose_datapath.dcache_latency::23            0                       # Histogram of dcache total access latency
system.fft_transpose_datapath.dcache_latency::24            0                       # Histogram of dcache total access latency
system.fft_transpose_datapath.dcache_latency::25            0                       # Histogram of dcache total access latency
system.fft_transpose_datapath.dcache_latency::26            0                       # Histogram of dcache total access latency
system.fft_transpose_datapath.dcache_latency::27            0                       # Histogram of dcache total access latency
system.fft_transpose_datapath.dcache_latency::28            0                       # Histogram of dcache total access latency
system.fft_transpose_datapath.dcache_latency::29            0                       # Histogram of dcache total access latency
system.fft_transpose_datapath.dcache_latency::total            0                       # Histogram of dcache total access latency
system.fft_transpose_datapath.dcache_queue_time::samples            0                       # Histogram of time dcache request spent in queue
system.fft_transpose_datapath.dcache_queue_time::mean          nan                       # Histogram of time dcache request spent in queue
system.fft_transpose_datapath.dcache_queue_time::gmean          nan                       # Histogram of time dcache request spent in queue
system.fft_transpose_datapath.dcache_queue_time::stdev          nan                       # Histogram of time dcache request spent in queue
system.fft_transpose_datapath.dcache_queue_time::0            0                       # Histogram of time dcache request spent in queue
system.fft_transpose_datapath.dcache_queue_time::1            0                       # Histogram of time dcache request spent in queue
system.fft_transpose_datapath.dcache_queue_time::2            0                       # Histogram of time dcache request spent in queue
system.fft_transpose_datapath.dcache_queue_time::3            0                       # Histogram of time dcache request spent in queue
system.fft_transpose_datapath.dcache_queue_time::4            0                       # Histogram of time dcache request spent in queue
system.fft_transpose_datapath.dcache_queue_time::5            0                       # Histogram of time dcache request spent in queue
system.fft_transpose_datapath.dcache_queue_time::6            0                       # Histogram of time dcache request spent in queue
system.fft_transpose_datapath.dcache_queue_time::7            0                       # Histogram of time dcache request spent in queue
system.fft_transpose_datapath.dcache_queue_time::8            0                       # Histogram of time dcache request spent in queue
system.fft_transpose_datapath.dcache_queue_time::9            0                       # Histogram of time dcache request spent in queue
system.fft_transpose_datapath.dcache_queue_time::10            0                       # Histogram of time dcache request spent in queue
system.fft_transpose_datapath.dcache_queue_time::11            0                       # Histogram of time dcache request spent in queue
system.fft_transpose_datapath.dcache_queue_time::12            0                       # Histogram of time dcache request spent in queue
system.fft_transpose_datapath.dcache_queue_time::13            0                       # Histogram of time dcache request spent in queue
system.fft_transpose_datapath.dcache_queue_time::14            0                       # Histogram of time dcache request spent in queue
system.fft_transpose_datapath.dcache_queue_time::15            0                       # Histogram of time dcache request spent in queue
system.fft_transpose_datapath.dcache_queue_time::16            0                       # Histogram of time dcache request spent in queue
system.fft_transpose_datapath.dcache_queue_time::17            0                       # Histogram of time dcache request spent in queue
system.fft_transpose_datapath.dcache_queue_time::18            0                       # Histogram of time dcache request spent in queue
system.fft_transpose_datapath.dcache_queue_time::19            0                       # Histogram of time dcache request spent in queue
system.fft_transpose_datapath.dcache_queue_time::20            0                       # Histogram of time dcache request spent in queue
system.fft_transpose_datapath.dcache_queue_time::21            0                       # Histogram of time dcache request spent in queue
system.fft_transpose_datapath.dcache_queue_time::22            0                       # Histogram of time dcache request spent in queue
system.fft_transpose_datapath.dcache_queue_time::23            0                       # Histogram of time dcache request spent in queue
system.fft_transpose_datapath.dcache_queue_time::24            0                       # Histogram of time dcache request spent in queue
system.fft_transpose_datapath.dcache_queue_time::25            0                       # Histogram of time dcache request spent in queue
system.fft_transpose_datapath.dcache_queue_time::26            0                       # Histogram of time dcache request spent in queue
system.fft_transpose_datapath.dcache_queue_time::27            0                       # Histogram of time dcache request spent in queue
system.fft_transpose_datapath.dcache_queue_time::28            0                       # Histogram of time dcache request spent in queue
system.fft_transpose_datapath.dcache_queue_time::29            0                       # Histogram of time dcache request spent in queue
system.fft_transpose_datapath.dcache_queue_time::total            0                       # Histogram of time dcache request spent in queue
system.fft_transpose_datapath.dma_setup_cycles            0                       # Total number of cycles spent on setting up DMA transfers.
system.fft_transpose_datapath.sim_cycles        24157                       # Total accelerator cycles
system.fft_transpose_datapath.tlb.hits              0                       # TLB hits
system.fft_transpose_datapath.tlb.misses            0                       # TLB misses
system.fft_transpose_datapath.tlb.reads             0                       # TLB reads
system.fft_transpose_datapath.tlb.updates            0                       # TLB updates
system.fft_transpose_datapath.total_acp_loads            0                       # Total number of ACP loads
system.fft_transpose_datapath.total_acp_stores            0                       # Total number of ACP stores.
system.fft_transpose_datapath.total_dcache_loads            0                       # Total number of dcache loads
system.fft_transpose_datapath.total_dcache_stores            0                       # Total number of dcache stores.
system.membus.snoop_filter.hit_multi_requests           45                       # Number of requests hitting in the snoop filter with multiple (>1) holders of the requested data.
system.membus.snoop_filter.hit_multi_snoops            0                       # Number of snoops hitting in the snoop filter with multiple (>1) holders of the requested data.
system.membus.snoop_filter.hit_single_requests        43280                       # Number of requests hitting in the snoop filter with a single holder of the requested data.
system.membus.snoop_filter.hit_single_snoops            0                       # Number of snoops hitting in the snoop filter with a single holder of the requested data.
system.membus.snoop_filter.tot_requests         87421                       # Total number of requests made to the snoop filter.
system.membus.snoop_filter.tot_snoops               0                       # Total number of snoops made to the snoop filter.
system.membus.pwrStateResidencyTicks::UNDEFINED  34941389301                       # Cumulative time (in ticks) in various power states
system.membus.trans_dist::ReadReq                 128                       # Transaction distribution
system.membus.trans_dist::ReadResp              44019                       # Transaction distribution
system.membus.trans_dist::WriteReq                128                       # Transaction distribution
system.membus.trans_dist::WriteResp               128                       # Transaction distribution
system.membus.trans_dist::WritebackDirty           38                       # Transaction distribution
system.membus.trans_dist::CleanEvict            42854                       # Transaction distribution
system.membus.trans_dist::ReadExReq               254                       # Transaction distribution
system.membus.trans_dist::ReadExResp              254                       # Transaction distribution
system.membus.trans_dist::ReadSharedReq         43891                       # Transaction distribution
system.membus.trans_dist::InvalidateReq           128                       # Transaction distribution
system.membus.trans_dist::InvalidateResp          128                       # Transaction distribution
system.membus.pkt_count_system.cpu.icache.mem_side::system.mem_ctrls.port       129258                       # Packet count per connected master and slave (bytes)
system.membus.pkt_count_system.cpu.icache.mem_side::total       129258                       # Packet count per connected master and slave (bytes)
system.membus.pkt_count_system.cpu.dcache.mem_side::system.mem_ctrls.port         1924                       # Packet count per connected master and slave (bytes)
system.membus.pkt_count_system.cpu.dcache.mem_side::total         1924                       # Packet count per connected master and slave (bytes)
system.membus.pkt_count_system.fft_transpose_datapath.dma::system.mem_ctrls.port          512                       # Packet count per connected master and slave (bytes)
system.membus.pkt_count_system.fft_transpose_datapath.dma::total          512                       # Packet count per connected master and slave (bytes)
system.membus.pkt_count::total                 131694                       # Packet count per connected master and slave (bytes)
system.membus.pkt_size_system.cpu.icache.mem_side::system.mem_ctrls.port      2767936                       # Cumulative packet size per connected master and slave (bytes)
system.membus.pkt_size_system.cpu.icache.mem_side::total      2767936                       # Cumulative packet size per connected master and slave (bytes)
system.membus.pkt_size_system.cpu.dcache.mem_side::system.mem_ctrls.port        59776                       # Cumulative packet size per connected master and slave (bytes)
system.membus.pkt_size_system.cpu.dcache.mem_side::total        59776                       # Cumulative packet size per connected master and slave (bytes)
system.membus.pkt_size_system.fft_transpose_datapath.dma::system.mem_ctrls.port         8192                       # Cumulative packet size per connected master and slave (bytes)
system.membus.pkt_size_system.fft_transpose_datapath.dma::total         8192                       # Cumulative packet size per connected master and slave (bytes)
system.membus.pkt_size::total                 2835904                       # Cumulative packet size per connected master and slave (bytes)
system.membus.snoops                              256                       # Total snoops (count)
system.membus.snoopTraffic                       8192                       # Total snoop traffic (bytes)
system.membus.snoop_fanout::samples             44529                       # Request fanout histogram
system.membus.snoop_fanout::mean             0.006849                       # Request fanout histogram
system.membus.snoop_fanout::stdev            0.082479                       # Request fanout histogram
system.membus.snoop_fanout::underflows              0      0.00%      0.00% # Request fanout histogram
system.membus.snoop_fanout::0                   44224     99.32%     99.32% # Request fanout histogram
system.membus.snoop_fanout::1                     305      0.68%    100.00% # Request fanout histogram
system.membus.snoop_fanout::2                       0      0.00%    100.00% # Request fanout histogram
system.membus.snoop_fanout::3                       0      0.00%    100.00% # Request fanout histogram
system.membus.snoop_fanout::4                       0      0.00%    100.00% # Request fanout histogram
system.membus.snoop_fanout::5                       0      0.00%    100.00% # Request fanout histogram
system.membus.snoop_fanout::6                       0      0.00%    100.00% # Request fanout histogram
system.membus.snoop_fanout::overflows               0      0.00%    100.00% # Request fanout histogram
system.membus.snoop_fanout::min_value               0                       # Request fanout histogram
system.membus.snoop_fanout::max_value               1                       # Request fanout histogram
system.membus.snoop_fanout::total               44529                       # Request fanout histogram
system.membus.reqLayer2.occupancy          2979253239                       # Layer occupancy (ticks)
system.membus.reqLayer2.utilization               8.5                       # Layer utilization (%)
system.membus.respLayer7.occupancy           29750272                       # Layer occupancy (ticks)
system.membus.respLayer7.utilization              0.1                       # Layer utilization (%)
system.membus.respLayer1.occupancy         6685999322                       # Layer occupancy (ticks)
system.membus.respLayer1.utilization             19.1                       # Layer utilization (%)
system.membus.respLayer2.occupancy          147688103                       # Layer occupancy (ticks)
system.membus.respLayer2.utilization              0.4                       # Layer utilization (%)
system.voltage_domain.voltage                       1                       # Voltage in Volts
system.fft_transpose_datapath.pwrStateResidencyTicks::UNDEFINED  34941389301                       # Cumulative time (in ticks) in various power states
system.fft_transpose_datapath.cache.pwrStateResidencyTicks::UNDEFINED  34941389301                       # Cumulative time (in ticks) in various power states
system.fft_transpose_datapath.cache.demand_misses::.fft_transpose_datapath.system.fft_transpose_datapath.cache            1                       # number of demand (read+write) misses
system.fft_transpose_datapath.cache.demand_misses::total            1                       # number of demand (read+write) misses
system.fft_transpose_datapath.cache.overall_misses::.fft_transpose_datapath.system.fft_transpose_datapath.cache            1                       # number of overall misses
system.fft_transpose_datapath.cache.overall_misses::total            1                       # number of overall misses
system.fft_transpose_datapath.cache.demand_accesses::.fft_transpose_datapath.system.fft_transpose_datapath.cache            1                       # number of demand (read+write) accesses
system.fft_transpose_datapath.cache.demand_accesses::total            1                       # number of demand (read+write) accesses
system.fft_transpose_datapath.cache.overall_accesses::.fft_transpose_datapath.system.fft_transpose_datapath.cache            1                       # number of overall (read+write) accesses
system.fft_transpose_datapath.cache.overall_accesses::total            1                       # number of overall (read+write) accesses
system.fft_transpose_datapath.cache.demand_miss_rate::.fft_transpose_datapath.system.fft_transpose_datapath.cache            1                       # miss rate for demand accesses
system.fft_transpose_datapath.cache.demand_miss_rate::total            1                       # miss rate for demand accesses
system.fft_transpose_datapath.cache.overall_miss_rate::.fft_transpose_datapath.system.fft_transpose_datapath.cache            1                       # miss rate for overall accesses
system.fft_transpose_datapath.cache.overall_miss_rate::total            1                       # miss rate for overall accesses
system.fft_transpose_datapath.cache.blocked_cycles::no_mshrs            0                       # number of cycles access was blocked
system.fft_transpose_datapath.cache.blocked_cycles::no_targets            0                       # number of cycles access was blocked
system.fft_transpose_datapath.cache.blocked::no_mshrs            0                       # number of cycles access was blocked
system.fft_transpose_datapath.cache.blocked::no_targets            0                       # number of cycles access was blocked
system.fft_transpose_datapath.cache.avg_blocked_cycles::no_mshrs          nan                       # average number of cycles each access was blocked
system.fft_transpose_datapath.cache.avg_blocked_cycles::no_targets          nan                       # average number of cycles each access was blocked
system.fft_transpose_datapath.cache.demand_mshr_misses::.fft_transpose_datapath.system.fft_transpose_datapath.cache            1                       # number of demand (read+write) MSHR misses
system.fft_transpose_datapath.cache.demand_mshr_misses::total            1                       # number of demand (read+write) MSHR misses
system.fft_transpose_datapath.cache.overall_mshr_misses::.fft_transpose_datapath.system.fft_transpose_datapath.cache            1                       # number of overall MSHR misses
system.fft_transpose_datapath.cache.overall_mshr_misses::total            1                       # number of overall MSHR misses
system.fft_transpose_datapath.cache.demand_mshr_miss_rate::.fft_transpose_datapath.system.fft_transpose_datapath.cache            1                       # mshr miss rate for demand accesses
system.fft_transpose_datapath.cache.demand_mshr_miss_rate::total            1                       # mshr miss rate for demand accesses
system.fft_transpose_datapath.cache.overall_mshr_miss_rate::.fft_transpose_datapath.system.fft_transpose_datapath.cache            1                       # mshr miss rate for overall accesses
system.fft_transpose_datapath.cache.overall_mshr_miss_rate::total            1                       # mshr miss rate for overall accesses
system.fft_transpose_datapath.cache.replacements            0                       # number of replacements
system.fft_transpose_datapath.cache.WriteReq_misses::.fft_transpose_datapath.system.fft_transpose_datapath.cache            1                       # number of WriteReq misses
system.fft_transpose_datapath.cache.WriteReq_misses::total            1                       # number of WriteReq misses
system.fft_transpose_datapath.cache.WriteReq_accesses::.fft_transpose_datapath.system.fft_transpose_datapath.cache            1                       # number of WriteReq accesses(hits+misses)
system.fft_transpose_datapath.cache.WriteReq_accesses::total            1                       # number of WriteReq accesses(hits+misses)
system.fft_transpose_datapath.cache.WriteReq_miss_rate::.fft_transpose_datapath.system.fft_transpose_datapath.cache            1                       # miss rate for WriteReq accesses
system.fft_transpose_datapath.cache.WriteReq_miss_rate::total            1                       # miss rate for WriteReq accesses
system.fft_transpose_datapath.cache.WriteReq_mshr_misses::.fft_transpose_datapath.system.fft_transpose_datapath.cache            1                       # number of WriteReq MSHR misses
system.fft_transpose_datapath.cache.WriteReq_mshr_misses::total            1                       # number of WriteReq MSHR misses
system.fft_transpose_datapath.cache.WriteReq_mshr_miss_rate::.fft_transpose_datapath.system.fft_transpose_datapath.cache            1                       # mshr miss rate for WriteReq accesses
system.fft_transpose_datapath.cache.WriteReq_mshr_miss_rate::total            1                       # mshr miss rate for WriteReq accesses
system.fft_transpose_datapath.cache.prefetcher.pwrStateResidencyTicks::UNDEFINED  34941389301                       # Cumulative time (in ticks) in various power states
system.fft_transpose_datapath.cache.tags.pwrStateResidencyTicks::UNDEFINED  34941389301                       # Cumulative time (in ticks) in various power states
system.fft_transpose_datapath.cache.tags.tagsinuse            0                       # Cycle average of tags in use
system.fft_transpose_datapath.cache.tags.total_refs            0                       # Total number of references to valid blocks.
system.fft_transpose_datapath.cache.tags.sampled_refs            0                       # Sample count of references to valid blocks.
[...]
system.cpu.itb_walker_cache.blocked::no_targets            0                       # number of cycles access was blocked
system.cpu.itb_walker_cache.avg_blocked_cycles::no_mshrs          nan                       # average number of cycles each access was blocked
system.cpu.itb_walker_cache.avg_blocked_cycles::no_targets          nan                       # average number of cycles each access was blocked
system.cpu.itb_walker_cache.replacements            0                       # number of replacements
system.cpu.itb_walker_cache.tags.pwrStateResidencyTicks::UNDEFINED 114768976140                       # Cumulative time (in ticks) in various power states
system.cpu.itb_walker_cache.tags.tagsinuse            0                       # Cycle average of tags in use
system.cpu.itb_walker_cache.tags.total_refs            0                       # Total number of references to valid blocks.
system.cpu.itb_walker_cache.tags.sampled_refs            0                       # Sample count of references to valid blocks.
system.cpu.itb_walker_cache.tags.avg_refs          nan                       # Average number of references to valid blocks.
system.cpu.itb_walker_cache.tags.warmup_cycle            0                       # Cycle when the warmup percentage was hit.
system.cpu.itb_walker_cache.tags.tag_accesses            0                       # Number of tag accesses
system.cpu.itb_walker_cache.tags.data_accesses            0                       # Number of data accesses
system.cpu.itb.walker.pwrStateResidencyTicks::UNDEFINED 114768976140                       # Cumulative time (in ticks) in various power states
system.cpu.dtb_walker_cache.pwrStateResidencyTicks::UNDEFINED 114768976140                       # Cumulative time (in ticks) in various power states
system.cpu.dtb_walker_cache.blocked_cycles::no_mshrs            0                       # number of cycles access was blocked
system.cpu.dtb_walker_cache.blocked_cycles::no_targets            0                       # number of cycles access was blocked
system.cpu.dtb_walker_cache.blocked::no_mshrs            0                       # number of cycles access was blocked
system.cpu.dtb_walker_cache.blocked::no_targets            0                       # number of cycles access was blocked
system.cpu.dtb_walker_cache.avg_blocked_cycles::no_mshrs          nan                       # average number of cycles each access was blocked
system.cpu.dtb_walker_cache.avg_blocked_cycles::no_targets          nan                       # average number of cycles each access was blocked
system.cpu.dtb_walker_cache.replacements            0                       # number of replacements
system.cpu.dtb_walker_cache.tags.pwrStateResidencyTicks::UNDEFINED 114768976140                       # Cumulative time (in ticks) in various power states
system.cpu.dtb_walker_cache.tags.tagsinuse            0                       # Cycle average of tags in use
system.cpu.dtb_walker_cache.tags.total_refs            0                       # Total number of references to valid blocks.
system.cpu.dtb_walker_cache.tags.sampled_refs            0                       # Sample count of references to valid blocks.
system.cpu.dtb_walker_cache.tags.avg_refs          nan                       # Average number of references to valid blocks.
system.cpu.dtb_walker_cache.tags.warmup_cycle            0                       # Cycle when the warmup percentage was hit.
system.cpu.dtb_walker_cache.tags.tag_accesses            0                       # Number of tag accesses
system.cpu.dtb_walker_cache.tags.data_accesses            0                       # Number of data accesses
system.cpu.dcache.pwrStateResidencyTicks::UNDEFINED 114768976140                       # Cumulative time (in ticks) in various power states
system.cpu.dcache.demand_hits::.cpu.data      1431080                       # number of demand (read+write) hits
system.cpu.dcache.demand_hits::total          1431080                       # number of demand (read+write) hits
system.cpu.dcache.overall_hits::.cpu.data      1431080                       # number of overall hits
system.cpu.dcache.overall_hits::total         1431080                       # number of overall hits
system.cpu.dcache.demand_misses::.cpu.data          921                       # number of demand (read+write) misses
system.cpu.dcache.demand_misses::total            921                       # number of demand (read+write) misses
system.cpu.dcache.overall_misses::.cpu.data          921                       # number of overall misses
system.cpu.dcache.overall_misses::total           921                       # number of overall misses
system.cpu.dcache.demand_miss_latency::.cpu.data    433423809                       # number of demand (read+write) miss cycles
system.cpu.dcache.demand_miss_latency::total    433423809                       # number of demand (read+write) miss cycles
system.cpu.dcache.overall_miss_latency::.cpu.data    433423809                       # number of overall miss cycles
system.cpu.dcache.overall_miss_latency::total    433423809                       # number of overall miss cycles
system.cpu.dcache.demand_accesses::.cpu.data      1432001                       # number of demand (read+write) accesses
system.cpu.dcache.demand_accesses::total      1432001                       # number of demand (read+write) accesses
system.cpu.dcache.overall_accesses::.cpu.data      1432001                       # number of overall (read+write) accesses
system.cpu.dcache.overall_accesses::total      1432001                       # number of overall (read+write) accesses
system.cpu.dcache.demand_miss_rate::.cpu.data     0.000643                       # miss rate for demand accesses
system.cpu.dcache.demand_miss_rate::total     0.000643                       # miss rate for demand accesses
system.cpu.dcache.overall_miss_rate::.cpu.data     0.000643                       # miss rate for overall accesses
system.cpu.dcache.overall_miss_rate::total     0.000643                       # miss rate for overall accesses
system.cpu.dcache.demand_avg_miss_latency::.cpu.data 470601.312704                       # average overall miss latency
system.cpu.dcache.demand_avg_miss_latency::total 470601.312704                       # average overall miss latency
system.cpu.dcache.overall_avg_miss_latency::.cpu.data 470601.312704                       # average overall miss latency
system.cpu.dcache.overall_avg_miss_latency::total 470601.312704                       # average overall miss latency
system.cpu.dcache.blocked_cycles::no_mshrs            0                       # number of cycles access was blocked
system.cpu.dcache.blocked_cycles::no_targets            0                       # number of cycles access was blocked
system.cpu.dcache.blocked::no_mshrs                 0                       # number of cycles access was blocked
system.cpu.dcache.blocked::no_targets               0                       # number of cycles access was blocked
system.cpu.dcache.avg_blocked_cycles::no_mshrs          nan                       # average number of cycles each access was blocked
system.cpu.dcache.avg_blocked_cycles::no_targets          nan                       # average number of cycles each access was blocked
system.cpu.dcache.unused_prefetches                45                       # number of HardPF blocks evicted w/o reference
system.cpu.dcache.writebacks::.writebacks          236                       # number of writebacks
system.cpu.dcache.writebacks::total               236                       # number of writebacks
system.cpu.dcache.demand_mshr_hits::.cpu.data          646                       # number of demand (read+write) MSHR hits
system.cpu.dcache.demand_mshr_hits::total          646                       # number of demand (read+write) MSHR hits
system.cpu.dcache.overall_mshr_hits::.cpu.data          646                       # number of overall MSHR hits
system.cpu.dcache.overall_mshr_hits::total          646                       # number of overall MSHR hits
system.cpu.dcache.demand_mshr_misses::.cpu.data          275                       # number of demand (read+write) MSHR misses
system.cpu.dcache.demand_mshr_misses::total          275                       # number of demand (read+write) MSHR misses
system.cpu.dcache.overall_mshr_misses::.cpu.data          275                       # number of overall MSHR misses
system.cpu.dcache.overall_mshr_misses::.cpu.dcache.prefetcher          518                       # number of overall MSHR misses
system.cpu.dcache.overall_mshr_misses::total          793                       # number of overall MSHR misses
system.cpu.dcache.demand_mshr_miss_latency::.cpu.data    135484713                       # number of demand (read+write) MSHR miss cycles
system.cpu.dcache.demand_mshr_miss_latency::total    135484713                       # number of demand (read+write) MSHR miss cycles
system.cpu.dcache.overall_mshr_miss_latency::.cpu.data    135484713                       # number of overall MSHR miss cycles
system.cpu.dcache.overall_mshr_miss_latency::.cpu.dcache.prefetcher    332391419                       # number of overall MSHR miss cycles
system.cpu.dcache.overall_mshr_miss_latency::total    467876132                       # number of overall MSHR miss cycles
system.cpu.dcache.demand_mshr_miss_rate::.cpu.data     0.000192                       # mshr miss rate for demand accesses
system.cpu.dcache.demand_mshr_miss_rate::total     0.000192                       # mshr miss rate for demand accesses
system.cpu.dcache.overall_mshr_miss_rate::.cpu.data     0.000192                       # mshr miss rate for overall accesses
system.cpu.dcache.overall_mshr_miss_rate::.cpu.dcache.prefetcher          inf                       # mshr miss rate for overall accesses
system.cpu.dcache.overall_mshr_miss_rate::total     0.000554                       # mshr miss rate for overall accesses
system.cpu.dcache.demand_avg_mshr_miss_latency::.cpu.data 492671.683636                       # average overall mshr miss latency
system.cpu.dcache.demand_avg_mshr_miss_latency::total 492671.683636                       # average overall mshr miss latency
system.cpu.dcache.overall_avg_mshr_miss_latency::.cpu.data 492671.683636                       # average overall mshr miss latency
system.cpu.dcache.overall_avg_mshr_miss_latency::.cpu.dcache.prefetcher 641682.276062                       # average overall mshr miss latency
system.cpu.dcache.overall_avg_mshr_miss_latency::total 590007.732661                       # average overall mshr miss latency
system.cpu.dcache.replacements                    449                       # number of replacements
system.cpu.dcache.ReadReq_hits::.cpu.data       843202                       # number of ReadReq hits
system.cpu.dcache.ReadReq_hits::total          843202                       # number of ReadReq hits
system.cpu.dcache.ReadReq_misses::.cpu.data          853                       # number of ReadReq misses
system.cpu.dcache.ReadReq_misses::total           853                       # number of ReadReq misses
system.cpu.dcache.ReadReq_miss_latency::.cpu.data    394302636                       # number of ReadReq miss cycles
system.cpu.dcache.ReadReq_miss_latency::total    394302636                       # number of ReadReq miss cycles
system.cpu.dcache.ReadReq_accesses::.cpu.data       844055                       # number of ReadReq accesses(hits+misses)
system.cpu.dcache.ReadReq_accesses::total       844055                       # number of ReadReq accesses(hits+misses)
system.cpu.dcache.ReadReq_miss_rate::.cpu.data     0.001011                       # miss rate for ReadReq accesses
system.cpu.dcache.ReadReq_miss_rate::total     0.001011                       # miss rate for ReadReq accesses
system.cpu.dcache.ReadReq_avg_miss_latency::.cpu.data 462253.969519                       # average ReadReq miss latency
system.cpu.dcache.ReadReq_avg_miss_latency::total 462253.969519                       # average ReadReq miss latency
system.cpu.dcache.ReadReq_mshr_hits::.cpu.data          646                       # number of ReadReq MSHR hits
system.cpu.dcache.ReadReq_mshr_hits::total          646                       # number of ReadReq MSHR hits
system.cpu.dcache.ReadReq_mshr_misses::.cpu.data          207                       # number of ReadReq MSHR misses
system.cpu.dcache.ReadReq_mshr_misses::total          207                       # number of ReadReq MSHR misses
system.cpu.dcache.ReadReq_mshr_miss_latency::.cpu.data    100484748                       # number of ReadReq MSHR miss cycles
system.cpu.dcache.ReadReq_mshr_miss_latency::total    100484748                       # number of ReadReq MSHR miss cycles
system.cpu.dcache.ReadReq_mshr_miss_rate::.cpu.data     0.000245                       # mshr miss rate for ReadReq accesses
system.cpu.dcache.ReadReq_mshr_miss_rate::total     0.000245                       # mshr miss rate for ReadReq accesses
system.cpu.dcache.ReadReq_avg_mshr_miss_latency::.cpu.data 485433.565217                       # average ReadReq mshr miss latency
system.cpu.dcache.ReadReq_avg_mshr_miss_latency::total 485433.565217                       # average ReadReq mshr miss latency
system.cpu.dcache.WriteReq_hits::.cpu.data       587878                       # number of WriteReq hits
system.cpu.dcache.WriteReq_hits::total         587878                       # number of WriteReq hits
system.cpu.dcache.WriteReq_misses::.cpu.data           68                       # number of WriteReq misses
system.cpu.dcache.WriteReq_misses::total           68                       # number of WriteReq misses
system.cpu.dcache.WriteReq_miss_latency::.cpu.data     39121173                       # number of WriteReq miss cycles
system.cpu.dcache.WriteReq_miss_latency::total     39121173                       # number of WriteReq miss cycles
system.cpu.dcache.WriteReq_accesses::.cpu.data       587946                       # number of WriteReq accesses(hits+misses)
system.cpu.dcache.WriteReq_accesses::total       587946                       # number of WriteReq accesses(hits+misses)
system.cpu.dcache.WriteReq_miss_rate::.cpu.data     0.000116                       # miss rate for WriteReq accesses
system.cpu.dcache.WriteReq_miss_rate::total     0.000116                       # miss rate for WriteReq accesses
system.cpu.dcache.WriteReq_avg_miss_latency::.cpu.data 575311.367647                       # average WriteReq miss latency
system.cpu.dcache.WriteReq_avg_miss_latency::total 575311.367647                       # average WriteReq miss latency
system.cpu.dcache.WriteReq_mshr_misses::.cpu.data           68                       # number of WriteReq MSHR misses
system.cpu.dcache.WriteReq_mshr_misses::total           68                       # number of WriteReq MSHR misses
system.cpu.dcache.WriteReq_mshr_miss_latency::.cpu.data     34999965                       # number of WriteReq MSHR miss cycles
system.cpu.dcache.WriteReq_mshr_miss_latency::total     34999965                       # number of WriteReq MSHR miss cycles
system.cpu.dcache.WriteReq_mshr_miss_rate::.cpu.data     0.000116                       # mshr miss rate for WriteReq accesses
system.cpu.dcache.WriteReq_mshr_miss_rate::total     0.000116                       # mshr miss rate for WriteReq accesses
system.cpu.dcache.WriteReq_avg_mshr_miss_latency::.cpu.data 514705.367647                       # average WriteReq mshr miss latency
system.cpu.dcache.WriteReq_avg_mshr_miss_latency::total 514705.367647                       # average WriteReq mshr miss latency
system.cpu.dcache.HardPFReq_mshr_misses::.cpu.dcache.prefetcher          518                       # number of HardPFReq MSHR misses
system.cpu.dcache.HardPFReq_mshr_misses::total          518                       # number of HardPFReq MSHR misses
system.cpu.dcache.HardPFReq_mshr_miss_latency::.cpu.dcache.prefetcher    332391419                       # number of HardPFReq MSHR miss cycles
system.cpu.dcache.HardPFReq_mshr_miss_latency::total    332391419                       # number of HardPFReq MSHR miss cycles
system.cpu.dcache.HardPFReq_mshr_miss_rate::.cpu.dcache.prefetcher          inf                       # mshr miss rate for HardPFReq accesses
system.cpu.dcache.HardPFReq_mshr_miss_rate::total          inf                       # mshr miss rate for HardPFReq accesses
system.cpu.dcache.HardPFReq_avg_mshr_miss_latency::.cpu.dcache.prefetcher 641682.276062                       # average HardPFReq mshr miss latency
system.cpu.dcache.HardPFReq_avg_mshr_miss_latency::total 641682.276062                       # average HardPFReq mshr miss latency
system.cpu.dcache.prefetcher.pwrStateResidencyTicks::UNDEFINED 114768976140                       # Cumulative time (in ticks) in various power states
system.cpu.dcache.tags.pwrStateResidencyTicks::UNDEFINED 114768976140                       # Cumulative time (in ticks) in various power states
system.cpu.dcache.tags.tagsinuse           811.261355                       # Cycle average of tags in use
system.cpu.dcache.tags.total_refs             1827444                       # Total number of references to valid blocks.
system.cpu.dcache.tags.sampled_refs              1428                       # Sample count of references to valid blocks.
system.cpu.dcache.tags.avg_refs           1279.722689                       # Average number of references to valid blocks.
system.cpu.dcache.tags.warmup_cycle                 0                       # Cycle when the warmup percentage was hit.
system.cpu.dcache.tags.occ_blocks::.cpu.data   301.355274                       # Average occupied blocks per requestor
system.cpu.dcache.tags.occ_blocks::.cpu.dcache.prefetcher   509.906080                       # Average occupied blocks per requestor
system.cpu.dcache.tags.occ_percent::.cpu.data     0.294292                       # Average percentage of cache occupancy
system.cpu.dcache.tags.occ_percent::.cpu.dcache.prefetcher     0.497955                       # Average percentage of cache occupancy
system.cpu.dcache.tags.occ_percent::total     0.792247                       # Average percentage of cache occupancy
system.cpu.dcache.tags.occ_task_id_blocks::1022          739                       # Occupied blocks per task id
system.cpu.dcache.tags.occ_task_id_blocks::1024          239                       # Occupied blocks per task id
system.cpu.dcache.tags.age_task_id_blocks_1022::1           18                       # Occupied blocks per task id
system.cpu.dcache.tags.age_task_id_blocks_1022::2           36                       # Occupied blocks per task id
system.cpu.dcache.tags.age_task_id_blocks_1022::3           85                       # Occupied blocks per task id
system.cpu.dcache.tags.age_task_id_blocks_1022::4          600                       # Occupied blocks per task id
system.cpu.dcache.tags.age_task_id_blocks_1024::0            2                       # Occupied blocks per task id
system.cpu.dcache.tags.age_task_id_blocks_1024::1           24                       # Occupied blocks per task id
system.cpu.dcache.tags.age_task_id_blocks_1024::2           13                       # Occupied blocks per task id
system.cpu.dcache.tags.age_task_id_blocks_1024::3            4                       # Occupied blocks per task id
system.cpu.dcache.tags.age_task_id_blocks_1024::4          196                       # Occupied blocks per task id
system.cpu.dcache.tags.occ_task_id_percent::1022     0.721680                       # Percentage of cache occupancy per task id
system.cpu.dcache.tags.occ_task_id_percent::1024     0.233398                       # Percentage of cache occupancy per task id
system.cpu.dcache.tags.tag_accesses           2864794                       # Number of tag accesses
system.cpu.dcache.tags.data_accesses          2864794                       # Number of data accesses

---------- End Simulation Statistics   ----------
